Program Version,EnergyPlus, Version 9.3.0-baff08990c, YMD=2021.02.23 16:50,
   ** Warning ** ProcessScheduleInput: Schedule:Constant="ALWAYS ON DISCRETE", Blank Schedule Type Limits Name input -- will not be validated.
   ** Warning ** ProcessScheduleInput: Schedule:Constant="ALWAYS ON DISCRETE 1", Blank Schedule Type Limits Name input -- will not be validated.
   ** Warning ** ProcessScheduleInput: Schedule:Constant="ALWAYS OFF DISCRETE", Blank Schedule Type Limits Name input -- will not be validated.
   ** Warning ** ProcessScheduleInput: Schedule:Constant="ALWAYS ON CONTINUOUS", Blank Schedule Type Limits Name input -- will not be validated.
   ** Warning ** No floor exists in Zone="PLENUMZONE", zone floor area is zero. All values for this zone that are entered per floor area will be zero.
   ** Warning ** ComputeIntSolarAbsorpFactors: Solar distribution model is set to place solar gains on the zone floor,
   **   ~~~   ** ...Enclosure="PLENUMZONE" has no floor, but has approximate horizontal surfaces.
   **   ~~~   ** ...these Tilt > 120 degrees, (area=[0.12] m2) will be used.
   ** Warning ** Output:Meter: invalid Key Name="GAS:FACILITY" - not found.
   ** Warning ** Output:Meter:MeterFileOnly: invalid Key Name="GAS:FACILITY" - not found.
   ** Warning ** Output:Meter:MeterFileOnly requested for "Electricity:Facility" (TimeStep), already on "Output:Meter". Will report to both eplusout.eso and eplusout.mtr
   ************* Testing Individual Branch Integrity
   ************* All Branches passed integrity testing
   ************* Testing Individual Supply Air Path Integrity
   ************* All Supply Air Paths passed integrity testing
   ************* Testing Individual Return Air Path Integrity
   ************* All Return Air Paths passed integrity testing
   ************* No node connection errors were found.
   ************* Beginning Simulation
   ** Warning ** Processing Monthly Tabular Reports: Variable names not valid for this simulation
   **   ~~~   ** ...use Output:Diagnostics,DisplayExtraWarnings; to show more details on individual variables.
   ** Severe  ** InitPurchasedAir: For ZoneHVAC:IdealLoadsAirSystem = PLENUMZONE IDEAL LOADS AIR SYSTEM serving Zone PLENUMZONE
   **   ~~~   ** ..the maximum supply air temperature for heating [50.00] is less than the zone mean air temperature heating setpoint [50.00].
   **   ~~~   ** ..For operative and comfort thermostat controls, the MAT setpoint is computed.
   **   ~~~   ** ..This error may indicate that the mean radiant temperature or another comfort factor is too cold.
   **   ~~~   ** Unit availability is nominally ON and Heating availability is nominally ON.
   **   ~~~   ** Limit Heating Capacity Type=NoLimit
   **   ~~~   **  Environment=RUN PERIOD 1, at Simulation time=01/02 04:34 - 04:35
   ** Severe  ** InitPurchasedAir: For ZoneHVAC:IdealLoadsAirSystem = CONDITIONEDZONE IDEAL LOADS AIR SYSTEM serving Zone CONDITIONEDZONE
   **   ~~~   ** ..the maximum supply air temperature for heating [50.05] is less than the zone mean air temperature heating setpoint [50.06].
   **   ~~~   ** ..For operative and comfort thermostat controls, the MAT setpoint is computed.
   **   ~~~   ** ..This error may indicate that the mean radiant temperature or another comfort factor is too cold.
   **   ~~~   ** Unit availability is nominally ON and Heating availability is nominally ON.
   **   ~~~   ** Limit Heating Capacity Type=NoLimit
   **   ~~~   **  Environment=RUN PERIOD 1, at Simulation time=01/02 05:59 - 06:00
   ** Warning ** In the Annual Building Utility Performance Summary Report the total row does not match the sum of the column for: Electricity [GJ]
   ** Warning ** The resource referenced by LifeCycleCost:UsePriceEscalation= "U.S. AVG  COMMERCIAL-ELECTRICITY" has no energy cost. 
   **   ~~~   ** ... It is likely that the wrong resource is used. The resource should match the meter used in Utility:Tariff.
   ** Warning ** The resource referenced by LifeCycleCost:UsePriceEscalation= "U.S. AVG  COMMERCIAL-DISTILLATE OIL" has no energy cost. 
   **   ~~~   ** ... It is likely that the wrong resource is used. The resource should match the meter used in Utility:Tariff.
   ** Warning ** The resource referenced by LifeCycleCost:UsePriceEscalation= "U.S. AVG  COMMERCIAL-RESIDUAL OIL" has no energy cost. 
   **   ~~~   ** ... It is likely that the wrong resource is used. The resource should match the meter used in Utility:Tariff.
   ** Warning ** The resource referenced by LifeCycleCost:UsePriceEscalation= "U.S. AVG  COMMERCIAL-NATURAL GAS" has no energy cost. 
   **   ~~~   ** ... It is likely that the wrong resource is used. The resource should match the meter used in Utility:Tariff.
   ** Warning ** The resource referenced by LifeCycleCost:UsePriceEscalation= "U.S. AVG  COMMERCIAL-COAL" has no energy cost. 
   **   ~~~   ** ... It is likely that the wrong resource is used. The resource should match the meter used in Utility:Tariff.
   ************* Simulation Error Summary *************
   ** Warning ** The following Report Variables were requested but not generated -- check.rdd file
   **   ~~~   ** Either the IDF did not contain these elements, the variable name is misspelled,
   **   ~~~   ** or the requested variable is an advanced output which requires Output : Diagnostics, DisplayAdvancedReportVariables;
   ************* Key=ConditionedZone, VarName=ZONE AIR HEAT BALANCE DEVIATION RATE, Frequency=TimeStep
   ************* Key=ConditionedZone, VarName=ZONE OPAQUE SURFACE INSIDE FACES TOTAL CONDUCTION HEAT GAIN ENERGY, Frequency=TimeStep
   ************* Key=ConditionedZone, VarName=ZONE OPAQUE SURFACE INSIDE FACES TOTAL CONDUCTION HEAT LOSS ENERGY, Frequency=TimeStep
   ************* Key=PlenumZone, VarName=ZONE AIR HEAT BALANCE DEVIATION RATE, Frequency=TimeStep
   ************* Key=PlenumZone, VarName=ZONE OPAQUE SURFACE INSIDE FACES TOTAL CONDUCTION HEAT GAIN ENERGY, Frequency=TimeStep
   ************* Key=PlenumZone, VarName=ZONE OPAQUE SURFACE INSIDE FACES TOTAL CONDUCTION HEAT LOSS ENERGY, Frequency=TimeStep
   ************* There are 6 unused schedules in input.
   ************* There are 370 unused week schedules in input.
   ************* There are 370 unused day schedules in input.
   ************* Use Output:Diagnostics,DisplayUnusedSchedules; to see them.
   *************
   ************* ===== Recurring Error Summary =====
   ************* The following recurring error messages occurred.
   *************
   *************  ** Severe  ** InitPurchasedAir: For ZoneHVAC:IdealLoadsAirSystem = PLENUMZONE IDEAL LOADS AIR SYSTEM serving Zone PLENUMZONE, maximum supply air temperature for heating error continues
   *************  **   ~~~   **   This error occurred 4288 total times;
   *************  **   ~~~   **   during Warmup 0 times;
   *************  **   ~~~   **   during Sizing 0 times.
   *************  **   ~~~   **   Max=50. C  Min=50. C
   *************
   *************  ** Severe  ** InitPurchasedAir: For ZoneHVAC:IdealLoadsAirSystem = CONDITIONEDZONE IDEAL LOADS AIR SYSTEM serving Zone CONDITIONEDZONE, maximum supply air temperature for heating error continues
   *************  **   ~~~   **   This error occurred 4172 total times;
   *************  **   ~~~   **   during Warmup 0 times;
   *************  **   ~~~   **   during Sizing 0 times.
   *************  **   ~~~   **   Max=50.05 C  Min=50.05 C
   *************
   ************* EnergyPlus Warmup Error Summary. During Warmup: 0 Warning; 0 Severe Errors.
   ************* EnergyPlus Sizing Error Summary. During Sizing: 0 Warning; 0 Severe Errors.
   ************* EnergyPlus Completed Successfully-- 17 Warning; 8460 Severe Errors; Elapsed Time=00hr 07min  3.13sec
